data/models/IEEE_8500_Bus-G/em1/Loads.dss
New "Load.226195333c0" phases=2 bus1=sx2801909c.1.2 kV=0.208 status=variable model=1 conn=wye kW=4.07 pf=0.97 Vminpu=.88
New "Load.223658a0" phases=2 bus1=sx2823592a.1.2 kV=0.208 status=variable model=1 conn=wye kW=1.77 pf=0.97 Vminpu=.88
New "Load.223660c0" phases=2 bus1=sx3160863c.1.2 kV=0.208 status=variable model=1 conn=wye kW=6.1 pf=0.97 Vminpu=.88
New "Load.223661c0" phases=2 bus1=sx2730108c.1.2 kV=0.208 status=variable model=1 conn=wye kW=6.1 pf=0.97 Vminpu=.88
New "Load.223662c0" phases=2 bus1=sx2786204c.1.2 kV=0.208 status=variable model=1 conn=wye kW=15.26 pf=0.97 Vminpu=.88
New "Load.223663c0" phases=2 bus1=sx2936216c.1.2 kV=0.208 status=variable model=1 conn=wye kW=4.07 pf=0.97 Vminpu=.88
New "Load.346639c0" phases=2 bus1=sx2992556c.1.2 kV=0.208 status=variable model=1 conn=wye kW=6.1 pf=0.97 Vminpu=.88
New "Load.251867c0" phases=2 bus1=sx2861157c.1.2 kV=0.208 status=variable model=1 conn=wye kW=10.17 pf=0.97 Vminpu=.88
New "Load.227411655c0" phases=2 bus1=sx2806553c.1.2 kV=0.208 status=variable model=1 conn=wye kW=10.17 pf=0.97 Vminpu=.88
New "Load.251865c0" phases=2 bus1=sx3142050c.1.2 kV=0.208 status=variable model=1 conn=wye kW=6.1 pf=0.97 Vminpu=.88
New "Load.251862c0" phases=2 bus1=sx3254873c.1.2 kV=0.208 status=variable model=1 conn=wye kW=6.1 pf=0.97 Vminpu=.88
New "Load.251863c0" phases=2 bus1=sx2745811c.1.2 kV=0.208 status=variable model=1 conn=wye kW=10.17 pf=0.97 Vminpu=.88
New "Load.226195194c0" phases=2 bus1=sx3027124c.1.2 kV=0.208 status=variable model=1 conn=wye kW=10.17 pf=0.97 Vminpu=.88
New "Load.2128517c0" phases=2 bus1=sx3048890c.1.2 kV=0.208 status=variable model=1 conn=wye kW=10.17 pf=0.97 Vminpu=.88
New "Load.2128464c0" phases=2 bus1=sx3048889c.1.2 kV=0.208 status=variable model=1 conn=wye kW=10.17 pf=0.97 Vminpu=.88
New "Load.251859c0" phases=2 bus1=sx2952007c.1.2 kV=0.208 status=variable model=1 conn=wye kW=10.17 pf=0.97 Vminpu=.88
New "Load.251858c0" phases=2 bus1=sx2861158c.1.2 kV=0.208 status=variable model=1 conn=wye kW=10.17 pf=0.97 Vminpu=.88
New "Load.251857c0" phases=2 bus1=sx3064514c.1.2 kV=0.208 status=variable model=1 conn=wye kW=6.1 pf=0.97 Vminpu=.88
New "Load.251856c0" phases=2 bus1=sx3048888c.1.2 kV=0.208 status=variable model=1 conn=wye kW=6.1 pf=0.97 Vminpu=.88
New "Load.226010605c0" phases=2 bus1=sx2764411c.1.2 kV=0.208 status=variable model=1 conn=wye kW=6.1 pf=0.97 Vminpu=.88
New "Load.356791c0" phases=2 bus1=sx2767343c.1.2 kV=0.208 status=variable model=1 conn=wye kW=15.26 pf=0.97 Vminpu=.88
New "Load.356790c0" phases=2 bus1=sx2804957c.1.2 kV=0.208 status=variable model=1 conn=wye kW=4.07 pf=0.97 Vminpu=.88
New "Load.356789c0" phases=2 bus1=sx3048937c.1.2 kV=0.208 status=variable model=1 conn=wye kW=6.1 pf=0.97 Vminpu=.88
New "Load.356788c0" phases=2 bus1=sx3176661c.1.2 kV=0.208 status=variable model=1 conn=wye kW=4.07 pf=0.97 Vminpu=.88
New "Load.356787c0" phases=2 bus1=sx2970804c.1.2 kV=0.208 status=variable model=1 conn=wye kW=10.17 pf=0.97 Vminpu=.88
New "Load.225533423c0" phases=2 bus1=sx2891575c.1.2 kV=0.208 status=variable model=1 conn=wye kW=6.1 pf=0.97 Vminpu=.88
New "Load.21386442c0" phases=2 bus1=sx3179637c.1.2 kV=0.208 status=variable model=1 conn=wye kW=15.26 pf=0.97 Vminpu=.88
New "Load.228314460c0" phases=2 bus1=sx3253570c.1.2 kV=0.208 status=variable model=1 conn=wye kW=10.17 pf=0.97 Vminpu=.88
New "Load.227411650c0" phases=2 bus1=sx2937757c.1.2 kV=0.208 status=variable model=1 conn=wye kW=10.17 pf=0.97 Vminpu=.88
New "Load.262075c0" phases=2 bus1=sx3067448c.1.2 kV=0.208 status=variable model=1 conn=wye kW=10.17 pf=0.97 Vminpu=.88
New "Load.225906836c0" phases=2 bus1=sx2763407c.1.2 kV=0.208 status=variable model=1 conn=wye kW=10.17 pf=0.97 Vminpu=.88
New "Load.223655c0" phases=2 bus1=sx2936268c.1.2 kV=0.208 status=variable model=1 conn=wye kW=6.1 pf=0.97 Vminpu=.88
New "Load.21386877a0" phases=2 bus1=sx2823611a.1.2 kV=0.208 status=variable model=1 conn=wye kW=5.32 pf=0.97 Vminpu=.88
New "Load.20107636a0" phases=2 bus1=sx3030204a.1.2 kV=0.208 status=variable model=1 conn=wye kW=8.87 pf=0.97 Vminpu=.88
New "Load.226264795a0" phases=2 bus1=sx3139366a.1.2 kV=0.208 status=variable model=1 conn=wye kW=8.87 pf=0.97 Vminpu=.88
New "Load.227944551c0" phases=2 bus1=sx3234149c.1.2 kV=0.208 status=fixed model=1 conn=wye kW=101.7 pf=0.97 Vminpu=.88
New "Load.227944551b0" phases=2 bus1=sx3234149b.1.2 kV=0.208 status=fixed model=1 conn=wye kW=97.26 pf=0.97 Vminpu=.88
New "Load.227944551a0" phases=2 bus1=sx3234149a.1.2 kV=0.208 status=fixed model=1 conn=wye kW=88.68 pf=0.97 Vminpu=.88
New "Load.260461b0" phases=2 bus1=sx2861223b.1.2 kV=0.208 status=variable model=1 conn=wye kW=9.73 pf=0.97 Vminpu=.88
New "Load.2129466c0" phases=2 bus1=sx3011293c.1.2 kV=0.208 status=variable model=1 conn=wye kW=20.34 pf=0.97 Vminpu=.88
New "Load.2129466b0" phases=2 bus1=sx3011293b.1.2 kV=0.208 status=variable model=1 conn=wye kW=19.45 pf=0.97 Vminpu=.88
New "Load.2129466a0" phases=2 bus1=sx3011293a.1.2 kV=0.208 status=variable model=1 conn=wye kW=17.74 pf=0.97 Vminpu=.88
New "Load.2129923c0" phases=2 bus1=sx3123509c.1.2 kV=0.208 status=variable model=1 conn=wye kW=6.1 pf=0.97 Vminpu=.88
New "Load.157715b0" phases=2 bus1=sx2936275b.1.2 kV=0.208 status=variable model=1 conn=wye kW=3.89 pf=0.97 Vminpu=.88
New "Load.157716b0" phases=2 bus1=sx3179674b.1.2 kV=0.208 status=variable model=1 conn=wye kW=9.73 pf=0.97 Vminpu=.88
New "Load.260463b0" phases=2 bus1=sx3086075b.1.2 kV=0.208 status=variable model=1 conn=wye kW=5.84 pf=0.97 Vminpu=.88
New "Load.157717b0" phases=2 bus1=sx2748840b.1.2 kV=0.208 status=variable model=1 conn=wye kW=5.84 pf=0.97 Vminpu=.88
New "Load.157718b0" phases=2 bus1=sx3142099b.1.2 kV=0.208 status=variable model=1 conn=wye kW=9.73 pf=0.97 Vminpu=.88
New "Load.260457b0" phases=2 bus1=sx3086079b.1.2 kV=0.208 status=variable model=1 conn=wye kW=3.89 pf=0.97 Vminpu=.88
New "Load.260458b0" phases=2 bus1=sx2936276b.1.2 kV=0.208 status=variable model=1 conn=wye kW=3.89 pf=0.97 Vminpu=.88
New "Load.260630b0" phases=2 bus1=sx2973833b.1.2 kV=0.208 status=variable model=1 conn=wye kW=5.84 pf=0.97 Vminpu=.88
New "Load.260627a0" phases=2 bus1=sx2992656a.1.2 kV=0.208 status=variable model=1 conn=wye kW=13.3 pf=0.97 Vminpu=.88
New "Load.260467a0" phases=2 bus1=sx3104856a.1.2 kV=0.208 status=variable model=1 conn=wye kW=5.32 pf=0.97 Vminpu=.88
New "Load.260464a0" phases=2 bus1=sx2730187a.1.2 kV=0.208 status=variable model=1 conn=wye kW=13.3 pf=0.97 Vminpu=.88
New "Load.2150292a0" phases=2 bus1=sx2839305a.1.2 kV=0.208 status=variable model=1 conn=wye kW=5.32 pf=0.97 Vminpu=.88
New "Load.260648a0" phases=2 bus1=sx2898522a.1.2 kV=0.208 status=variable model=1 conn=wye kW=8.87 pf=0.97 Vminpu=.88
New "Load.260650a0" phases=2 bus1=sx2692661a.1.2 kV=0.208 status=variable model=1 conn=wye kW=8.87 pf=0.97 Vminpu=.88
New "Load.260631a0" phases=2 bus1=sx2786266a.1.2 kV=0.208 status=variable model=1 conn=wye kW=5.32 pf=0.97 Vminpu=.88
New "Load.260634a0" phases=2 bus1=sx2842383a.1.2 kV=0.208 status=variable model=1 conn=wye kW=5.32 pf=0.97 Vminpu=.88
New "Load.260637c0" phases=2 bus1=sx2842384c.1.2 kV=0.208 status=variable model=1 conn=wye kW=4.07 pf=0.97 Vminpu=.88
New "Load.260638c0" phases=2 bus1=sx3160871c.1.2 kV=0.208 status=variable model=1 conn=wye kW=10.17 pf=0.97 Vminpu=.88
New "Load.260639c0" phases=2 bus1=sx3030203c.1.2 kV=0.208 status=variable model=1 conn=wye kW=10.17 pf=0.97 Vminpu=.88
New "Load.260640c0" phases=2 bus1=sx3179673c.1.2 kV=0.208 status=variable model=1 conn=wye kW=6.1 pf=0.97 Vminpu=.88
New "Load.260641b0" phases=2 bus1=sx3048965b.1.2 kV=0.208 status=variable model=1 conn=wye kW=14.59 pf=0.97 Vminpu=.88
New "Load.260643a0" phases=2 bus1=sx2692660a.1.2 kV=0.208 status=variable model=1 conn=wye kW=17.74 pf=0.97 Vminpu=.88
New "Load.21243817a0" phases=2 bus1=sx2955076a.1.2 kV=0.208 status=variable model=1 conn=wye kW=5.32 pf=0.97 Vminpu=.88
New "Load.260543c0" phases=2 bus1=sx2955077c.1.2 kV=0.208 status=variable model=1 conn=wye kW=10.17 pf=0.97 Vminpu=.88
New "Load.260551c0" phases=2 bus1=sx3160872c.1.2 kV=0.208 status=variable model=1 conn=wye kW=15.26 pf=0.97 Vminpu=.88
New "Load.260558c0" phases=2 bus1=sx3160861c.1.2 kV=0.208 status=variable model=1 conn=wye kW=4.07 pf=0.97 Vminpu=.88
New "Load.260562a0" phases=2 bus1=sx3251799a.1.2 kV=0.208 status=variable model=1 conn=wye kW=13.3 pf=0.97 Vminpu=.88
New "Load.226194419c0" phases=2 bus1=sx3214071c.1.2 kV=0.208 status=variable model=1 conn=wye kW=10.17 pf=0.97 Vminpu=.88
New "Load.260572c0" phases=2 bus1=sx3236004c.1.2 kV=0.208 status=variable model=1 conn=wye kW=6.1 pf=0.97 Vminpu=.88
New "Load.260567c0" phases=2 bus1=sx2936211c.1.2 kV=0.208 status=variable model=1 conn=wye kW=6.1 pf=0.97 Vminpu=.88
New "Load.260568c0" phases=2 bus1=sx2842329c.1.2 kV=0.208 status=variable model=1 conn=wye kW=6.1 pf=0.97 Vminpu=.88
New "Load.226194421c0" phases=2 bus1=sx3214069c.1.2 kV=0.208 status=variable model=1 conn=wye kW=10.17 pf=0.97 Vminpu=.88
New "Load.21474711c0" phases=2 bus1=sx2861197c.1.2 kV=0.208 status=variable model=1 conn=wye kW=6.1 pf=0.97 Vminpu=.88
New "Load.260573c0" phases=2 bus1=sx3160896c.1.2 kV=0.208 status=variable model=1 conn=wye kW=6.1 pf=0.97 Vminpu=.88
New "Load.21386065c0" phases=2 bus1=sx2917255c.1.2 kV=0.208 status=variable model=1 conn=wye kW=10.17 pf=0.97 Vminpu=.88
New "Load.260569c0" phases=2 bus1=sx3104796c.1.2 kV=0.208 status=variable model=1 conn=wye kW=10.17 pf=0.97 Vminpu=.88
New "Load.260574c0" phases=2 bus1=sx3123452c.1.2 kV=0.208 status=variable model=1 conn=wye kW=10.17 pf=0.97 Vminpu=.88
New "Load.260577c0" phases=2 bus1=sx2767341c.1.2 kV=0.208 status=variable model=1 conn=wye kW=15.26 pf=0.97 Vminpu=.88
New "Load.260598a0" phases=2 bus1=sx3067478a.1.2 kV=0.208 status=variable model=1 conn=wye kW=13.3 pf=0.97 Vminpu=.88
New "Load.260601c0" phases=2 bus1=sx2730149c.1.2 kV=0.208 status=variable model=1 conn=wye kW=6.1 pf=0.97 Vminpu=.88
New "Load.260602b0" phases=2 bus1=sx2989566b.1.2 kV=0.208 status=variable model=1 conn=wye kW=5.84 pf=0.97 Vminpu=.88
New "Load.337614b0" phases=2 bus1=sx2952003b.1.2 kV=0.208 status=variable model=1 conn=wye kW=9.73 pf=0.97 Vminpu=.88
New "Load.227760021c0" phases=2 bus1=sx2803199c.1.2 kV=0.208 status=variable model=1 conn=wye kW=20.34 pf=0.97 Vminpu=.88
New "Load.227760021b0" phases=2 bus1=sx2803199b.1.2 kV=0.208 status=variable model=1 conn=wye kW=19.45 pf=0.97 Vminpu=.88
New "Load.227760021a0" phases=2 bus1=sx2803199a.1.2 kV=0.208 status=variable model=1 conn=wye kW=17.74 pf=0.97 Vminpu=.88
New "Load.21482181a0" phases=2 bus1=sx3254237a.1.2 kV=0.208 status=variable model=1 conn=wye kW=8.87 pf=0.97 Vminpu=.88
New "Load.227187012c0" phases=2 bus1=sx2896685c.1.2 kV=0.208 status=variable model=1 conn=wye kW=6.1 pf=0.97 Vminpu=.88
New "Load.227187012b0" phases=2 bus1=sx2896685b.1.2 kV=0.208 status=variable model=1 conn=wye kW=5.84 pf=0.97 Vminpu=.88
New "Load.227187012a0" phases=2 bus1=sx2896685a.1.2 kV=0.208 status=variable model=1 conn=wye kW=5.32 pf=0.97 Vminpu=.88
New "Load.337619c0" phases=2 bus1=sx2990826c.1.2 kV=0.208 status=variable model=1 conn=wye kW=10.17 pf=0.97 Vminpu=.88
New "Load.337619b0" phases=2 bus1=sx2990826b.1.2 kV=0.208 status=variable model=1 conn=wye kW=9.73 pf=0.97 Vminpu=.88
New "Load.337619a0" phases=2 bus1=sx2990826a.1.2 kV=0.208 status=variable model=1 conn=wye kW=8.87 pf=0.97 Vminpu=.88
New "Load.337729c0" phases=2 bus1=sx2728247c.1.2 kV=0.208 status=variable model=1 conn=wye kW=4.07 pf=0.97 Vminpu=.88
New "Load.337729b0" phases=2 bus1=sx2728247b.1.2 kV=0.208 status=variable model=1 conn=wye kW=9.73 pf=0.97 Vminpu=.88
New "Load.337729a0" phases=2 bus1=sx2728247a.1.2 kV=0.208 status=variable model=1 conn=wye kW=3.55 pf=0.97 Vminpu=.88
New "Load.227921427c0" phases=2 bus1=sx2915542c.1.2 kV=0.208 status=variable model=1 conn=wye kW=20.34 pf=0.97 Vminpu=.88
New "Load.227921427b0" phases=2 bus1=sx2915542b.1.2 kV=0.208 status=variable model=1 conn=wye kW=19.45 pf=0.97 Vminpu=.88
New "Load.227921427a0" phases=2 bus1=sx2915542a.1.2 kV=0.208 status=variable model=1 conn=wye kW=17.74 pf=0.97 Vminpu=.88
New "Load.227760024c0" phases=2 bus1=sx3215203c.1.2 kV=0.208 status=variable model=1 conn=wye kW=20.34 pf=0.97 Vminpu=.88
New "Load.227760024b0" phases=2 bus1=sx3215203b.1.2 kV=0.208 status=variable model=1 conn=wye kW=19.45 pf=0.97 Vminpu=.88
New "Load.227760024a0" phases=2 bus1=sx3215203a.1.2 kV=0.208 status=variable model=1 conn=wye kW=17.74 pf=0.97 Vminpu=.88
New "Load.226308710b0" phases=2 bus1=sx2708744b.1.2 kV=0.208 status=fixed model=1 conn=wye kW=29.18 pf=0.97 Vminpu=.88
New "Load.226308716b0" phases=2 bus1=sx2690187b.1.2 kV=0.208 status=fixed model=1 conn=wye kW=29.18 pf=0.97 Vminpu=.88
New "Load.226308719b0" phases=2 bus1=sx3027670b.1.2 kV=0.208 status=fixed model=1 conn=wye kW=29.18 pf=0.97 Vminpu=.88
New "Load.226308725b0" phases=2 bus1=sx2802480b.1.2 kV=0.208 status=fixed model=1 conn=wye kW=29.18 pf=0.97 Vminpu=.88
New "Load.226308723b0" phases=2 bus1=sx3252336b.1.2 kV=0.208 status=variable model=1 conn=wye kW=14.59 pf=0.97 Vminpu=.88
New "Load.226308727b0" phases=2 bus1=sx3233413b.1.2 kV=0.208 status=variable model=1 conn=wye kW=19.45 pf=0.97 Vminpu=.88
New "Load.226308729b0" phases=2 bus1=sx3102286b.1.2 kV=0.208 status=fixed model=1 conn=wye kW=29.18 pf=0.97 Vminpu=.88
New "Load.226308717a0" phases=2 bus1=sx3233412a.1.2 kV=0.208 status=variable model=1 conn=wye kW=17.74 pf=0.97 Vminpu=.88
New "Load.226308720a0" phases=2 bus1=sx2821087a.1.2 kV=0.208 status=fixed model=1 conn=wye kW=26.6 pf=0.97 Vminpu=.88
New "Load.226308721a0" phases=2 bus1=sx2990098a.1.2 kV=0.208 status=variable model=1 conn=wye kW=17.74 pf=0.97 Vminpu=.88
New "Load.226308728a0" phases=2 bus1=sx3027671a.1.2 kV=0.208 status=variable model=1 conn=wye kW=13.3 pf=0.97 Vminpu=.88
New "Load.226308730a0" phases=2 bus1=sx2802481a.1.2 kV=0.208 status=fixed model=1 conn=wye kW=26.6 pf=0.97 Vminpu=.88
New "Load.226308731a0" phases=2 bus1=sx3214549a.1.2 kV=0.208 status=variable model=1 conn=wye kW=17.74 pf=0.97 Vminpu=.88
New "Load.228001810a0" phases=2 bus1=sx2859403a.1.2 kV=0.208 status=variable model=1 conn=wye kW=8.87 pf=0.97 Vminpu=.88
New "Load.260605a0" phases=2 bus1=sx2973791a.1.2 kV=0.208 status=variable model=1 conn=wye kW=17.74 pf=0.97 Vminpu=.88
New "Load.251828b0" phases=2 bus1=sx3179650b.1.2 kV=0.208 status=variable model=1 conn=wye kW=5.84 pf=0.97 Vminpu=.88
New "Load.226194826a0" phases=2 bus1=sx3232902a.1.2 kV=0.208 status=variable model=1 conn=wye kW=8.87 pf=0.97 Vminpu=.88
New "Load.226197070a0" phases=2 bus1=sx2933135a.1.2 kV=0.208 status=variable model=1 conn=wye kW=8.87 pf=0.97 Vminpu=.88
New "Load.356814c0" phases=2 bus1=sx2730106c.1.2 kV=0.208 status=variable model=1 conn=wye kW=10.17 pf=0.97 Vminpu=.88
New "Load.356810c0" phases=2 bus1=sx3142049c.1.2 kV=0.208 status=variable model=1 conn=wye kW=4.07 pf=0.97 Vminpu=.88
New "Load.328367c0" phases=2 bus1=sx3104830c.1.2 kV=0.208 status=variable model=1 conn=wye kW=4.07 pf=0.97 Vminpu=.88
New "Load.226194865a0" phases=2 bus1=sx3027122a.1.2 kV=0.208 status=variable model=1 conn=wye kW=8.87 pf=0.97 Vminpu=.88
New "Load.228622562a0" phases=2 bus1=sx3108449a.1.2 kV=0.208 status=variable model=1 conn=wye kW=5.32 pf=0.97 Vminpu=.88
New "Load.227895952a0" phases=2 bus1=sx3065665a.1.2 kV=0.208 status=variable model=1 conn=wye kW=8.87 pf=0.97 Vminpu=.88
New "Load.356800a0" phases=2 bus1=sx3235946a.1.2 kV=0.208 status=variable model=1 conn=wye kW=8.87 pf=0.97 Vminpu=.88
New "Load.356801a0" phases=2 bus1=sx3011229a.1.2 kV=0.208 status=variable model=1 conn=wye kW=5.32 pf=0.97 Vminpu=.88
New "Load.356802a0" phases=2 bus1=sx2767342a.1.2 kV=0.208 status=variable model=1 conn=wye kW=8.87 pf=0.97 Vminpu=.88
New "Load.356803a0" phases=2 bus1=sx2748780a.1.2 kV=0.208 status=variable model=1 conn=wye kW=8.87 pf=0.97 Vminpu=.88
New "Load.356804a0" phases=2 bus1=sx2823544a.1.2 kV=0.208 status=variable model=1 conn=wye kW=8.87 pf=0.97 Vminpu=.88
New "Load.356805a0" phases=2 bus1=sx3195321a.1.2 kV=0.208 status=variable model=1 conn=wye kW=5.32 pf=0.97 Vminpu=.88
New "Load.356808a0" phases=2 bus1=sx3101782a.1.2 kV=0.208 status=variable model=1 conn=wye kW=13.3 pf=0.97 Vminpu=.88
New "Load.356807a0" phases=2 bus1=sx2823545a.1.2 kV=0.208 status=variable model=1 conn=wye kW=8.87 pf=0.97 Vminpu=.88
New "Load.21382813a0" phases=2 bus1=sx2748781a.1.2 kV=0.208 status=variable model=1 conn=wye kW=13.3 pf=0.97 Vminpu=.88
New "Load.21469911a0" phases=2 bus1=sx2955047a.1.2 kV=0.208 status=variable model=1 conn=wye kW=8.87 pf=0.97 Vminpu=.88
New "Load.328365b0" phases=2 bus1=sx3179646b.1.2 kV=0.208 status=variable model=1 conn=wye kW=14.59 pf=0.97 Vminpu=.88
New "Load.21380325b0" phases=2 bus1=sx2674027b.1.2 kV=0.208 status=variable model=1 conn=wye kW=9.73 pf=0.97 Vminpu=.88
New "Load.328364c0" phases=2 bus1=sx2692633c.1.2 kV=0.208 status=variable model=1 conn=wye kW=10.17 pf=0.97 Vminpu=.88
New "Load.356797c0" phases=2 bus1=sx2955006c.1.2 kV=0.208 status=variable model=1 conn=wye kW=10.17 pf=0.97 Vminpu=.88
New "Load.356798c0" phases=2 bus1=sx2692600c.1.2 kV=0.208 status=variable model=1 conn=wye kW=10.17 pf=0.97 Vminpu=.88
New "Load.356796c0" phases=2 bus1=sx3235945c.1.2 kV=0.208 status=variable model=1 conn=wye kW=10.17 pf=0.97 Vminpu=.88
New "Load.356795c0" phases=2 bus1=sx2842330c.1.2 kV=0.208 status=variable model=1 conn=wye kW=10.17 pf=0.97 Vminpu=.88
New "Load.356794c0" phases=2 bus1=sx3086002c.1.2 kV=0.208 status=variable model=1 conn=wye kW=10.17 pf=0.97 Vminpu=.88
New "Load.251855c0" phases=2 bus1=sx2730107c.1.2 kV=0.208 status=variable model=1 conn=wye kW=10.17 pf=0.97 Vminpu=.88
New "Load.356793c0" phases=2 bus1=sx3179608c.1.2 kV=0.208 status=variable model=1 conn=wye kW=15.26 pf=0.97 Vminpu=.88
New "Load.225533215c0" phases=2 bus1=sx3097861c.1.2 kV=0.208 status=variable model=1 conn=wye kW=4.07 pf=0.97 Vminpu=.88
New "Load.339043c0" phases=2 bus1=sx2804277c.1.2 kV=0.208 status=variable model=1 conn=wye kW=10.17 pf=0.97 Vminpu=.88
New "Load.339044c0" phases=2 bus1=sx3197625c.1.2 kV=0.208 status=variable model=1 conn=wye kW=6.1 pf=0.97 Vminpu=.88
New "Load.21380453a0" phases=2 bus1=sx3010557a.1.2 kV=0.208 status=variable model=1 conn=wye kW=5.32 pf=0.97 Vminpu=.88
New "Load.226115278a0" phases=2 bus1=sx3157167a.1.2 kV=0.208 status=variable model=1 conn=wye kW=5.32 pf=0.97 Vminpu=.88
New "Load.339046a0" phases=2 bus1=sx2785511a.1.2 kV=0.208 status=variable model=1 conn=wye kW=8.87 pf=0.97 Vminpu=.88
New "Load.339049a0" phases=2 bus1=sx2916602a.1.2 kV=0.208 status=variable model=1 conn=wye kW=8.87 pf=0.97 Vminpu=.88
New "Load.339047a0" phases=2 bus1=sx2973148a.1.2 kV=0.208 status=variable model=1 conn=wye kW=8.87 pf=0.97 Vminpu=.88
New "Load.339048a0" phases=2 bus1=sx3160098a.1.2 kV=0.208 status=variable model=1 conn=wye kW=5.32 pf=0.97 Vminpu=.88
New "Load.21380500c0" phases=2 bus1=sx3235242c.1.2 kV=0.208 status=variable model=1 conn=wye kW=10.17 pf=0.97 Vminpu=.88
New "Load.442373c0" phases=2 bus1=sx3141393c.1.2 kV=0.208 status=variable model=1 conn=wye kW=10.17 pf=0.97 Vminpu=.88
New "Load.339052c0" phases=2 bus1=sx3118855c.1.2 kV=0.208 status=variable model=1 conn=wye kW=15.26 pf=0.97 Vminpu=.88
New "Load.339051c0" phases=2 bus1=sx3231255c.1.2 kV=0.208 status=variable model=1 conn=wye kW=10.17 pf=0.97 Vminpu=.88
New "Load.338979b0" phases=2 bus1=sx3066814b.1.2 kV=0.208 status=variable model=1 conn=wye kW=3.89 pf=0.97 Vminpu=.88
New "Load.338984a0" phases=2 bus1=sx2748144a.1.2 kV=0.208 status=variable model=1 conn=wye kW=8.87 pf=0.97 Vminpu=.88
New "Load.338983b0" phases=2 bus1=sx2691965b.1.2 kV=0.208 status=variable model=1 conn=wye kW=1.95 pf=0.97 Vminpu=.88
New "Load.338982b0" phases=2 bus1=sx2785534b.1.2 kV=0.208 status=variable model=1 conn=wye kW=9.73 pf=0.97 Vminpu=.88
New "Load.226193886b0" phases=2 bus1=sx2783231b.1.2 kV=0.208 status=variable model=1 conn=wye kW=9.73 pf=0.97 Vminpu=.88
New "Load.338995b0" phases=2 bus1=sx3254227b.1.2 kV=0.208 status=variable model=1 conn=wye kW=3.89 pf=0.97 Vminpu=.88
New "Load.338990b0" phases=2 bus1=sx2673331b.1.2 kV=0.208 status=variable model=1 conn=wye kW=19.45 pf=0.97 Vminpu=.88
New "Load.338993b0" phases=2 bus1=sx2804272b.1.2 kV=0.208 status=variable model=1 conn=wye kW=5.84 pf=0.97 Vminpu=.88
New "Load.21380156b0" phases=2 bus1=sx2841641b.1.2 kV=0.208 status=variable model=1 conn=wye kW=5.84 pf=0.97 Vminpu=.88
New "Load.226193892b0" phases=2 bus1=sx3176660b.1.2 kV=0.208 status=variable model=1 conn=wye kW=5.84 pf=0.97 Vminpu=.88
New "Load.339010b0" phases=2 bus1=sx2691966b.1.2 kV=0.208 status=variable model=1 conn=wye kW=19.45 pf=0.97 Vminpu=.88
New "Load.339016b0" phases=2 bus1=sx3235273b.1.2 kV=0.208 status=variable model=1 conn=wye kW=9.73 pf=0.97 Vminpu=.88
New "Load.226193899b0" phases=2 bus1=sx3082983b.1.2 kV=0.208 status=variable model=1 conn=wye kW=9.73 pf=0.97 Vminpu=.88
New "Load.226194002b0" phases=2 bus1=sx2801902b.1.2 kV=0.208 status=variable model=1 conn=wye kW=14.59 pf=0.97 Vminpu=.88
New "Load.339008b0" phases=2 bus1=sx3122835b.1.2 kV=0.208 status=variable model=1 conn=wye kW=5.84 pf=0.97 Vminpu=.88
New "Load.339007b0" phases=2 bus1=sx2916617b.1.2 kV=0.208 status=variable model=1 conn=wye kW=9.73 pf=0.97 Vminpu=.88
New "Load.2147708b0" phases=2 bus1=sx2991929b.1.2 kV=0.208 status=variable model=1 conn=wye kW=9.73 pf=0.97 Vminpu=.88
New "Load.227734175b0" phases=2 bus1=sx3102793b.1.2 kV=0.208 status=variable model=1 conn=wye kW=9.73 pf=0.97 Vminpu=.88
New "Load.339006b0" phases=2 bus1=sx2916619b.1.2 kV=0.208 status=variable model=1 conn=wye kW=9.73 pf=0.97 Vminpu=.88
New "Load.21383494b0" phases=2 bus1=sx2954361b.1.2 kV=0.208 status=variable model=1 conn=wye kW=9.73 pf=0.97 Vminpu=.88
New "Load.325474b0" phases=2 bus1=sx3254228b.1.2 kV=0.208 status=variable model=1 conn=wye kW=9.73 pf=0.97 Vminpu=.88
New "Load.323282b0" phases=2 bus1=sx2897791b.1.2 kV=0.208 status=variable model=1 conn=wye kW=14.59 pf=0.97 Vminpu=.88
New "Load.339005b0" phases=2 bus1=sx2785535b.1.2 kV=0.208 status=variable model=1 conn=wye kW=14.59 pf=0.97 Vminpu=.88
New "Load.339004b0" phases=2 bus1=sx3197653b.1.2 kV=0.208 status=variable model=1 conn=wye kW=9.73 pf=0.97 Vminpu=.88
New "Load.226193395b0" phases=2 bus1=sx2726974b.1.2 kV=0.208 status=variable model=1 conn=wye kW=9.73 pf=0.97 Vminpu=.88
New "Load.323283b0" phases=2 bus1=sx2916618b.1.2 kV=0.208 status=variable model=1 conn=wye kW=14.59 pf=0.97 Vminpu=.88
New "Load.323284b0" phases=2 bus1=sx3160113b.1.2 kV=0.208 status=variable model=1 conn=wye kW=9.73 pf=0.97 Vminpu=.88
New "Load.323285b0" phases=2 bus1=sx2804269b.1.2 kV=0.208 status=variable model=1 conn=wye kW=9.73 pf=0.97 Vminpu=.88
New "Load.323286b0" phases=2 bus1=sx2989564b.1.2 kV=0.208 status=variable model=1 conn=wye kW=5.84 pf=0.97 Vminpu=.88
New "Load.323287b0" phases=2 bus1=sx2897789b.1.2 kV=0.208 status=variable model=1 conn=wye kW=5.84 pf=0.97 Vminpu=.88
New "Load.21383553b0" phases=2 bus1=sx2935547b.1.2 kV=0.208 status=variable model=1 conn=wye kW=5.84 pf=0.97 Vminpu=.88
New "Load.339013b0" phases=2 bus1=sx2804270b.1.2 kV=0.208 status=variable model=1 conn=wye kW=5.84 pf=0.97 Vminpu=.88
New "Load.339011b0" phases=2 bus1=sx3104145b.1.2 kV=0.208 status=variable model=1 conn=wye kW=5.84 pf=0.97 Vminpu=.88
New "Load.339012b0" phases=2 bus1=sx2973171b.1.2 kV=0.208 status=variable model=1 conn=wye kW=9.73 pf=0.97 Vminpu=.88
New "Load.339097b0" phases=2 bus1=sx3085410b.1.2 kV=0.208 status=variable model=1 conn=wye kW=5.84 pf=0.97 Vminpu=.88
New "Load.338997b0" phases=2 bus1=sx2860499b.1.2 kV=0.208 status=variable model=1 conn=wye kW=19.45 pf=0.97 Vminpu=.88
New "Load.338998b0" phases=2 bus1=sx3254229b.1.2 kV=0.208 status=variable model=1 conn=wye kW=9.73 pf=0.97 Vminpu=.88
New "Load.339001b0" phases=2 bus1=sx3178988b.1.2 kV=0.208 status=variable model=1 conn=wye kW=3.89 pf=0.97 Vminpu=.88
New "Load.21381118b0" phases=2 bus1=sx2710530b.1.2 kV=0.208 status=variable model=1 conn=wye kW=5.84 pf=0.97 Vminpu=.88
...
